@<TRIPOS>MOLECULE
GWS
   34    35     1     0     0
SMALL
bcc


@<TRIPOS>ATOM
      1 N           -3.2590     2.8360     0.0000 nb         0 GWS      -0.643000
      2 C           -4.5930     2.0660     0.0000 ca         0 GWS       0.363200
      3 C1          -4.5930     0.5260     0.0000 ca         0 GWS      -0.219300
      4 C2          -3.2590    -0.2440     0.0000 ca         0 GWS      -0.156000
      5 C3          -1.9260     0.5260     0.0000 ca         0 GWS      -0.046700
      6 C4          -1.9260     2.0660     0.0000 ca         0 GWS       0.374200
      7 N1          -0.5920    -0.2440     0.0000 ns         0 GWS      -0.467100
      8 C5           0.7420     0.5260     0.0000 c          0 GWS       0.667100
      9 C6           2.0750    -0.2440     0.0000 c3         0 GWS      -0.150400
     10 C7           3.4090     0.5260     0.0000 c3         0 GWS      -0.062700
     11 C8           4.7430    -0.2440     0.0000 c3         0 GWS      -0.075900
     12 C9           6.0770     0.5260     0.0000 c3         0 GWS      -0.075900
     13 C10          6.0770     2.0660     0.0000 c3         0 GWS      -0.078400
     14 C11          4.7430     2.8360     0.0000 c3         0 GWS      -0.075900
     15 C12          3.4090     2.0660     0.0000 c3         0 GWS      -0.075900
     16 O            0.7420     1.3710    -1.1540 o          0 GWS      -0.585100
     17 H            4.7430     3.4680     0.8630 hc         0 GWS       0.043700
     18 H1           4.7430     3.4680    -0.8630 hc         0 GWS       0.043700
     19 H2           6.6250     2.3820     0.8630 hc         0 GWS       0.040700
     20 H3           6.6250     2.3820    -0.8630 hc         0 GWS       0.040700
     21 H4           6.6250     0.2100     0.8630 hc         0 GWS       0.043700
     22 H5           6.6250     0.2100    -0.8630 hc         0 GWS       0.043700
     23 H6           4.7430    -0.8760     0.8630 hc         0 GWS       0.040450
     24 H7           4.7430    -0.8760    -0.8630 hc         0 GWS       0.040450
     25 H8           2.8610     2.3820    -0.8630 hc         0 GWS       0.040450
     26 H9           2.8610     2.3820     0.8630 hc         0 GWS       0.040450
     27 H10          2.0750    -0.8760     0.8630 hc         0 GWS       0.070200
     28 H11          2.0750    -0.8760    -0.8630 hc         0 GWS       0.070200
     29 H12         -0.5920    -1.2440     0.0000 hn         0 GWS       0.316500
     30 H13         -5.5200     2.6010     0.0000 h4         0 GWS       0.023100
     31 H14         -5.5200    -0.0090     0.0000 ha         0 GWS       0.142000
     32 H15         -3.2590    -1.3140     0.0000 ha         0 GWS       0.133000
     33 H16         -0.9990     2.6010     0.0000 h4         0 GWS       0.063100
     34 H17          3.4090     0.5260    -1.0700 hc         0 GWS       0.071700
@<TRIPOS>BOND
     1     1     2 ar  
     2     1     6 ar  
     3     2     3 ar  
     4     2    30 1   
     5     3     4 ar  
     6     3    31 1   
     7     4     5 ar  
     8     4    32 1   
     9     5     6 ar  
    10     5     7 1   
    11     6    33 1   
    12     7     8 1   
    13     7    29 1   
    14     8     9 1   
    15     8    16 2   
    16     9    10 1   
    17     9    27 1   
    18     9    28 1   
    19    10    11 1   
    20    10    15 1   
    21    10    34 1   
    22    11    12 1   
    23    11    23 1   
    24    11    24 1   
    25    12    13 1   
    26    12    21 1   
    27    12    22 1   
    28    13    14 1   
    29    13    19 1   
    30    13    20 1   
    31    14    15 1   
    32    14    17 1   
    33    14    18 1   
    34    15    25 1   
    35    15    26 1   
@<TRIPOS>SUBSTRUCTURE
     1 GWS         1 TEMP              0 ****  ****    0 ROOT
