@<TRIPOS>MOLECULE
GWS
   34    35     1     0     1 
SMALL
USER_CHARGES
@<TRIPOS>ATOM
  1 N      -3.259000    2.836000    0.000000 nb    1 GWS    -0.6430 ****
  2 C      -4.593000    2.066000    0.000000 ca    1 GWS     0.3632 ****
  3 C1     -4.593000    0.526000    0.000000 ca    1 GWS    -0.2193 ****
  4 C2     -3.259000   -0.244000    0.000000 ca    1 GWS    -0.1560 ****
  5 C3     -1.926000    0.526000    0.000000 ca    1 GWS    -0.0467 ****
  6 C4     -1.926000    2.066000    0.000000 ca    1 GWS     0.3742 ****
  7 N1     -0.592000   -0.244000    0.000000 ns    1 GWS    -0.4671 ****
  8 C5      0.742000    0.526000    0.000000 c     1 GWS     0.6671 ****
  9 C6      2.075000   -0.244000    0.000000 c3    1 GWS    -0.1504 ****
 10 C7      3.409000    0.526000    0.000000 c3    1 GWS    -0.0627 ****
 11 C8      4.743000   -0.244000    0.000000 c3    1 GWS    -0.0759 ****
 12 C9      6.077000    0.526000    0.000000 c3    1 GWS    -0.0759 ****
 13 C10     6.077000    2.066000    0.000000 c3    1 GWS    -0.0784 ****
 14 C11     4.743000    2.836000    0.000000 c3    1 GWS    -0.0759 ****
 15 C12     3.409000    2.066000    0.000000 c3    1 GWS    -0.0759 ****
 16 O       0.742000    1.371000   -1.154000 o     1 GWS    -0.5851 ****
 17 H       4.743000    3.468000    0.863000 hc    1 GWS     0.0437 ****
 18 H1      4.743000    3.468000   -0.863000 hc    1 GWS     0.0437 ****
 19 H2      6.625000    2.382000    0.863000 hc    1 GWS     0.0407 ****
 20 H3      6.625000    2.382000   -0.863000 hc    1 GWS     0.0407 ****
 21 H4      6.625000    0.210000    0.863000 hc    1 GWS     0.0437 ****
 22 H5      6.625000    0.210000   -0.863000 hc    1 GWS     0.0437 ****
 23 H6      4.743000   -0.876000    0.863000 hc    1 GWS     0.0405 ****
 24 H7      4.743000   -0.876000   -0.863000 hc    1 GWS     0.0405 ****
 25 H8      2.861000    2.382000   -0.863000 hc    1 GWS     0.0405 ****
 26 H9      2.861000    2.382000    0.863000 hc    1 GWS     0.0405 ****
 27 H10     2.075000   -0.876000    0.863000 hc    1 GWS     0.0702 ****
 28 H11     2.075000   -0.876000   -0.863000 hc    1 GWS     0.0702 ****
 29 H12    -0.592000   -1.244000    0.000000 hn    1 GWS     0.3165 ****
 30 H13    -5.520000    2.601000    0.000000 h4    1 GWS     0.0231 ****
 31 H14    -5.520000   -0.009000    0.000000 ha    1 GWS     0.1420 ****
 32 H15    -3.259000   -1.314000    0.000000 ha    1 GWS     0.1330 ****
 33 H16    -0.999000    2.601000    0.000000 h4    1 GWS     0.0631 ****
 34 H17     3.409000    0.526000   -1.070000 hc    1 GWS     0.0717 ****
@<TRIPOS>BOND
    1     1     2 1
    2     1     6 1
    3     2     3 1
    4     2    30 1
    5     3     4 1
    6     3    31 1
    7     4     5 1
    8     4    32 1
    9     5     6 1
   10     5     7 1
   11     6    33 1
   12     7     8 1
   13     7    29 1
   14     8     9 1
   15     8    16 1
   16     9    10 1
   17     9    27 1
   18     9    28 1
   19    10    11 1
   20    10    15 1
   21    10    34 1
   22    11    12 1
   23    11    23 1
   24    11    24 1
   25    12    13 1
   26    12    21 1
   27    12    22 1
   28    13    14 1
   29    13    19 1
   30    13    20 1
   31    14    15 1
   32    14    17 1
   33    14    18 1
   34    15    25 1
   35    15    26 1
@<TRIPOS>SUBSTRUCTURE
      1  GWS              1 ****               0 ****  **** 
